                                  USG-TRANSPORT USG-TRANSPORT 
       FURTHER  DEVELOPMENTS BASED ON MODFLOW-USG
                      VERSION USG-TRANSPORT VERSION 2.02.1

 LIST FILE: henryusgu2.list
                         UNIT    2

 OPENING henryusgu2.disu
 FILE TYPE:DISU   UNIT   11   STATUS:OLD    
 FORMAT:FORMATTED              ACCESS:SEQUENTIAL          

 OPENING henryusgu2.bas
 FILE TYPE:BAS6   UNIT   13   STATUS:OLD    
 FORMAT:FORMATTED              ACCESS:SEQUENTIAL          

 OPENING henryusgu2.lpf
 FILE TYPE:LPF   UNIT   15   STATUS:OLD    
 FORMAT:FORMATTED              ACCESS:SEQUENTIAL          

 OPENING henryusgu2.oc
 FILE TYPE:OC   UNIT   14   STATUS:OLD    
 FORMAT:FORMATTED              ACCESS:SEQUENTIAL          

 OPENING henryusgu2.sms
 FILE TYPE:SMS   UNIT   32   STATUS:OLD    
 FORMAT:FORMATTED              ACCESS:SEQUENTIAL          

 OPENING henryusgu2.wel
 FILE TYPE:WEL   UNIT   20   STATUS:OLD    
 FORMAT:FORMATTED              ACCESS:SEQUENTIAL          

 OPENING henryusgu2.bct
 FILE TYPE:BCT   UNIT   35   STATUS:OLD    
 FORMAT:FORMATTED              ACCESS:SEQUENTIAL          

 OPENING henryusgu2.ddf
 FILE TYPE:DDF   UNIT   36   STATUS:OLD    
 FORMAT:FORMATTED              ACCESS:SEQUENTIAL          

 OPENING henryusgu2.ghb
 FILE TYPE:GHB   UNIT   23   STATUS:OLD    
 FORMAT:FORMATTED              ACCESS:SEQUENTIAL          

 OPENING henryusgu2.cbc
 FILE TYPE:DATA(BINARY)   UNIT   53   STATUS:REPLACE
 FORMAT:BINARY                 ACCESS:SEQUENTIAL          

 OPENING henryusgu2.hds
 FILE TYPE:DATA(BINARY)   UNIT   51   STATUS:REPLACE
 FORMAT:BINARY                 ACCESS:SEQUENTIAL          

 OPENING henryusgu2.con
 FILE TYPE:DATA(BINARY)   UNIT   52   STATUS:REPLACE
 FORMAT:BINARY                 ACCESS:SEQUENTIAL          

 BAS -- BASIC PACKAGEUSG-TRANSPORT USG-TRANSPORT VERSION 2.02.1             INPUT READ FROM UNIT   13
 
 # BAS6 package for MODFLOW-USG generated by Flopy 3.6.0                         
 THE FREE FORMAT OPTION HAS BEEN SELECTED
 THE UNSTRUCTURED GRID OPTION HAS BEEN SELECTED

 DIS -- UNSTRUCTURED GRID DISCRETIZATION PACKAGE, VERSION 1 : 5/17/2010 - INPUT READ FROM UNIT   11
 # DISU package for MODFLOW-USG generated by Flopy 3.6.0
       3200 NODES        40 NLAY     15760 NJAG  VERT. SUBDISCRETIZATION INDEX, IVSD =  0
 INDEX FOR INPUT OF UNSTRUCTURED, FINITE-VOLUME CONNECTIVITY INFORMATION, IDSYMRD =   0
    2 STRESS PERIOD(S) IN SIMULATION
 MODEL TIME UNIT IS DAYS
 MODEL LENGTH UNIT IS METERS
  Confining bed flag for each layer:
   0   0   0   0   0   0   0   0   0   0   0   0   0   0   0   0   0   0   0   0
   0   0   0   0   0   0   0   0   0   0   0   0   0   0   0   0   0   0   0   0

 DIS -- UNSTRUCTURED GRID DISCRETIZATION PACKAGE, VERSION 1 : 5/17/2010 - INPUT READ FROM UNIT   11



             NO. OF NODES PER LAYER
 READING ON UNIT   11 WITH FORMAT: (40I10)             



                                TOP FOR LAYER   1
 READING ON UNIT   11 WITH FORMAT: (80E15.6)           



                                TOP FOR LAYER   2
 READING ON UNIT   11 WITH FORMAT: (80E15.6)           



                                TOP FOR LAYER   3
 READING ON UNIT   11 WITH FORMAT: (80E15.6)           



                                TOP FOR LAYER   4
 READING ON UNIT   11 WITH FORMAT: (80E15.6)           



                                TOP FOR LAYER   5
 READING ON UNIT   11 WITH FORMAT: (80E15.6)           



                                TOP FOR LAYER   6
 READING ON UNIT   11 WITH FORMAT: (80E15.6)           



                                TOP FOR LAYER   7
 READING ON UNIT   11 WITH FORMAT: (80E15.6)           



                                TOP FOR LAYER   8
 READING ON UNIT   11 WITH FORMAT: (80E15.6)           



                                TOP FOR LAYER   9
 READING ON UNIT   11 WITH FORMAT: (80E15.6)           



                                TOP FOR LAYER  10
 READING ON UNIT   11 WITH FORMAT: (80E15.6)           



                                TOP FOR LAYER  11
 READING ON UNIT   11 WITH FORMAT: (80E15.6)           



                                TOP FOR LAYER  12
 READING ON UNIT   11 WITH FORMAT: (80E15.6)           



                                TOP FOR LAYER  13
 READING ON UNIT   11 WITH FORMAT: (80E15.6)           



                                TOP FOR LAYER  14
 READING ON UNIT   11 WITH FORMAT: (80E15.6)           



                                TOP FOR LAYER  15
 READING ON UNIT   11 WITH FORMAT: (80E15.6)           



                                TOP FOR LAYER  16
 READING ON UNIT   11 WITH FORMAT: (80E15.6)           



                                TOP FOR LAYER  17
 READING ON UNIT   11 WITH FORMAT: (80E15.6)           



                                TOP FOR LAYER  18
 READING ON UNIT   11 WITH FORMAT: (80E15.6)           



                                TOP FOR LAYER  19
 READING ON UNIT   11 WITH FORMAT: (80E15.6)           



                                TOP FOR LAYER  20
 READING ON UNIT   11 WITH FORMAT: (80E15.6)           



                                TOP FOR LAYER  21
 READING ON UNIT   11 WITH FORMAT: (80E15.6)           



                                TOP FOR LAYER  22
 READING ON UNIT   11 WITH FORMAT: (80E15.6)           



                                TOP FOR LAYER  23
 READING ON UNIT   11 WITH FORMAT: (80E15.6)           



                                TOP FOR LAYER  24
 READING ON UNIT   11 WITH FORMAT: (80E15.6)           



                                TOP FOR LAYER  25
 READING ON UNIT   11 WITH FORMAT: (80E15.6)           



                                TOP FOR LAYER  26
 READING ON UNIT   11 WITH FORMAT: (80E15.6)           



                                TOP FOR LAYER  27
 READING ON UNIT   11 WITH FORMAT: (80E15.6)           



                                TOP FOR LAYER  28
 READING ON UNIT   11 WITH FORMAT: (80E15.6)           



                                TOP FOR LAYER  29
 READING ON UNIT   11 WITH FORMAT: (80E15.6)           



                                TOP FOR LAYER  30
 READING ON UNIT   11 WITH FORMAT: (80E15.6)           



                                TOP FOR LAYER  31
 READING ON UNIT   11 WITH FORMAT: (80E15.6)           



                                TOP FOR LAYER  32
 READING ON UNIT   11 WITH FORMAT: (80E15.6)           



                                TOP FOR LAYER  33
 READING ON UNIT   11 WITH FORMAT: (80E15.6)           



                                TOP FOR LAYER  34
 READING ON UNIT   11 WITH FORMAT: (80E15.6)           



                                TOP FOR LAYER  35
 READING ON UNIT   11 WITH FORMAT: (80E15.6)           



                                TOP FOR LAYER  36
 READING ON UNIT   11 WITH FORMAT: (80E15.6)           



                                TOP FOR LAYER  37
 READING ON UNIT   11 WITH FORMAT: (80E15.6)           



                                TOP FOR LAYER  38
 READING ON UNIT   11 WITH FORMAT: (80E15.6)           



                                TOP FOR LAYER  39
 READING ON UNIT   11 WITH FORMAT: (80E15.6)           



                                TOP FOR LAYER  40
 READING ON UNIT   11 WITH FORMAT: (80E15.6)           



                                BOT FOR LAYER   1
 READING ON UNIT   11 WITH FORMAT: (80E15.6)           



                                BOT FOR LAYER   2
 READING ON UNIT   11 WITH FORMAT: (80E15.6)           



                                BOT FOR LAYER   3
 READING ON UNIT   11 WITH FORMAT: (80E15.6)           



                                BOT FOR LAYER   4
 READING ON UNIT   11 WITH FORMAT: (80E15.6)           



                                BOT FOR LAYER   5
 READING ON UNIT   11 WITH FORMAT: (80E15.6)           



                                BOT FOR LAYER   6
 READING ON UNIT   11 WITH FORMAT: (80E15.6)           



                                BOT FOR LAYER   7
 READING ON UNIT   11 WITH FORMAT: (80E15.6)           



                                BOT FOR LAYER   8
 READING ON UNIT   11 WITH FORMAT: (80E15.6)           



                                BOT FOR LAYER   9
 READING ON UNIT   11 WITH FORMAT: (80E15.6)           



                                BOT FOR LAYER  10
 READING ON UNIT   11 WITH FORMAT: (80E15.6)           



                                BOT FOR LAYER  11
 READING ON UNIT   11 WITH FORMAT: (80E15.6)           



                                BOT FOR LAYER  12
 READING ON UNIT   11 WITH FORMAT: (80E15.6)           



                                BOT FOR LAYER  13
 READING ON UNIT   11 WITH FORMAT: (80E15.6)           



                                BOT FOR LAYER  14
 READING ON UNIT   11 WITH FORMAT: (80E15.6)           



                                BOT FOR LAYER  15
 READING ON UNIT   11 WITH FORMAT: (80E15.6)           



                                BOT FOR LAYER  16
 READING ON UNIT   11 WITH FORMAT: (80E15.6)           



                                BOT FOR LAYER  17
 READING ON UNIT   11 WITH FORMAT: (80E15.6)           



                                BOT FOR LAYER  18
 READING ON UNIT   11 WITH FORMAT: (80E15.6)           



                                BOT FOR LAYER  19
 READING ON UNIT   11 WITH FORMAT: (80E15.6)           



                                BOT FOR LAYER  20
 READING ON UNIT   11 WITH FORMAT: (80E15.6)           



                                BOT FOR LAYER  21
 READING ON UNIT   11 WITH FORMAT: (80E15.6)           



                                BOT FOR LAYER  22
 READING ON UNIT   11 WITH FORMAT: (80E15.6)           



                                BOT FOR LAYER  23
 READING ON UNIT   11 WITH FORMAT: (80E15.6)           



                                BOT FOR LAYER  24
 READING ON UNIT   11 WITH FORMAT: (80E15.6)           



                                BOT FOR LAYER  25
 READING ON UNIT   11 WITH FORMAT: (80E15.6)           



                                BOT FOR LAYER  26
 READING ON UNIT   11 WITH FORMAT: (80E15.6)           



                                BOT FOR LAYER  27
 READING ON UNIT   11 WITH FORMAT: (80E15.6)           



                                BOT FOR LAYER  28
 READING ON UNIT   11 WITH FORMAT: (80E15.6)           



                                BOT FOR LAYER  29
 READING ON UNIT   11 WITH FORMAT: (80E15.6)           



                                BOT FOR LAYER  30
 READING ON UNIT   11 WITH FORMAT: (80E15.6)           



                                BOT FOR LAYER  31
 READING ON UNIT   11 WITH FORMAT: (80E15.6)           



                                BOT FOR LAYER  32
 READING ON UNIT   11 WITH FORMAT: (80E15.6)           



                                BOT FOR LAYER  33
 READING ON UNIT   11 WITH FORMAT: (80E15.6)           



                                BOT FOR LAYER  34
 READING ON UNIT   11 WITH FORMAT: (80E15.6)           



                                BOT FOR LAYER  35
 READING ON UNIT   11 WITH FORMAT: (80E15.6)           



                                BOT FOR LAYER  36
 READING ON UNIT   11 WITH FORMAT: (80E15.6)           



                                BOT FOR LAYER  37
 READING ON UNIT   11 WITH FORMAT: (80E15.6)           



                                BOT FOR LAYER  38
 READING ON UNIT   11 WITH FORMAT: (80E15.6)           



                                BOT FOR LAYER  39
 READING ON UNIT   11 WITH FORMAT: (80E15.6)           



                                BOT FOR LAYER  40
 READING ON UNIT   11 WITH FORMAT: (80E15.6)           

                     AREA =  2.500000E-02 FOR LAYER   1

                     AREA =  2.500000E-02 FOR LAYER   2

                     AREA =  2.500000E-02 FOR LAYER   3

                     AREA =  2.500000E-02 FOR LAYER   4

                     AREA =  2.500000E-02 FOR LAYER   5

                     AREA =  2.500000E-02 FOR LAYER   6

                     AREA =  2.500000E-02 FOR LAYER   7

                     AREA =  2.500000E-02 FOR LAYER   8

                     AREA =  2.500000E-02 FOR LAYER   9

                     AREA =  2.500000E-02 FOR LAYER  10

                     AREA =  2.500000E-02 FOR LAYER  11

                     AREA =  2.500000E-02 FOR LAYER  12

                     AREA =  2.500000E-02 FOR LAYER  13

                     AREA =  2.500000E-02 FOR LAYER  14

                     AREA =  2.500000E-02 FOR LAYER  15

                     AREA =  2.500000E-02 FOR LAYER  16

                     AREA =  2.500000E-02 FOR LAYER  17

                     AREA =  2.500000E-02 FOR LAYER  18

                     AREA =  2.500000E-02 FOR LAYER  19

                     AREA =  2.500000E-02 FOR LAYER  20

                     AREA =  2.500000E-02 FOR LAYER  21

                     AREA =  2.500000E-02 FOR LAYER  22

                     AREA =  2.500000E-02 FOR LAYER  23

                     AREA =  2.500000E-02 FOR LAYER  24

                     AREA =  2.500000E-02 FOR LAYER  25

                     AREA =  2.500000E-02 FOR LAYER  26

                     AREA =  2.500000E-02 FOR LAYER  27

                     AREA =  2.500000E-02 FOR LAYER  28

                     AREA =  2.500000E-02 FOR LAYER  29

                     AREA =  2.500000E-02 FOR LAYER  30

                     AREA =  2.500000E-02 FOR LAYER  31

                     AREA =  2.500000E-02 FOR LAYER  32

                     AREA =  2.500000E-02 FOR LAYER  33

                     AREA =  2.500000E-02 FOR LAYER  34

                     AREA =  2.500000E-02 FOR LAYER  35

                     AREA =  2.500000E-02 FOR LAYER  36

                     AREA =  2.500000E-02 FOR LAYER  37

                     AREA =  2.500000E-02 FOR LAYER  38

                     AREA =  2.500000E-02 FOR LAYER  39

                     AREA =  2.500000E-02 FOR LAYER  40



                                 IA
 READING ON UNIT   11 WITH FORMAT: (3200I10)           



                                 JA
 READING ON UNIT   11 WITH FORMAT: (15760I10)          



               CONNECTION LENGTH 12 FOR LAYER   1
 READING ON UNIT   11 WITH FORMAT: (15760E15.6)        



                 PERPENDICULAR AREA
 READING ON UNIT   11 WITH FORMAT: (15760E15.6)        


 STRESS PERIOD     LENGTH       TIME STEPS     MULTIPLIER FOR DELT    SS FLAG
 ----------------------------------------------------------------------------
        1         1.000000          1                    1.000         SS
        2        0.5000000        500                    1.000         TR

 COMBINED STEADY-STATE AND TRANSIENT SIMULATION






                     BOUNDARY ARRAY FOR LAYER   1
 READING ON UNIT   13 WITH FORMAT: (80I10)             



                     BOUNDARY ARRAY FOR LAYER   2
 READING ON UNIT   13 WITH FORMAT: (80I10)             



                     BOUNDARY ARRAY FOR LAYER   3
 READING ON UNIT   13 WITH FORMAT: (80I10)             



                     BOUNDARY ARRAY FOR LAYER   4
 READING ON UNIT   13 WITH FORMAT: (80I10)             



                     BOUNDARY ARRAY FOR LAYER   5
 READING ON UNIT   13 WITH FORMAT: (80I10)             



                     BOUNDARY ARRAY FOR LAYER   6
 READING ON UNIT   13 WITH FORMAT: (80I10)             



                     BOUNDARY ARRAY FOR LAYER   7
 READING ON UNIT   13 WITH FORMAT: (80I10)             



                     BOUNDARY ARRAY FOR LAYER   8
 READING ON UNIT   13 WITH FORMAT: (80I10)             



                     BOUNDARY ARRAY FOR LAYER   9
 READING ON UNIT   13 WITH FORMAT: (80I10)             



                     BOUNDARY ARRAY FOR LAYER  10
 READING ON UNIT   13 WITH FORMAT: (80I10)             



                     BOUNDARY ARRAY FOR LAYER  11
 READING ON UNIT   13 WITH FORMAT: (80I10)             



                     BOUNDARY ARRAY FOR LAYER  12
 READING ON UNIT   13 WITH FORMAT: (80I10)             



                     BOUNDARY ARRAY FOR LAYER  13
 READING ON UNIT   13 WITH FORMAT: (80I10)             



                     BOUNDARY ARRAY FOR LAYER  14
 READING ON UNIT   13 WITH FORMAT: (80I10)             



                     BOUNDARY ARRAY FOR LAYER  15
 READING ON UNIT   13 WITH FORMAT: (80I10)             



                     BOUNDARY ARRAY FOR LAYER  16
 READING ON UNIT   13 WITH FORMAT: (80I10)             



                     BOUNDARY ARRAY FOR LAYER  17
 READING ON UNIT   13 WITH FORMAT: (80I10)             



                     BOUNDARY ARRAY FOR LAYER  18
 READING ON UNIT   13 WITH FORMAT: (80I10)             



                     BOUNDARY ARRAY FOR LAYER  19
 READING ON UNIT   13 WITH FORMAT: (80I10)             



                     BOUNDARY ARRAY FOR LAYER  20
 READING ON UNIT   13 WITH FORMAT: (80I10)             



                     BOUNDARY ARRAY FOR LAYER  21
 READING ON UNIT   13 WITH FORMAT: (80I10)             



                     BOUNDARY ARRAY FOR LAYER  22
 READING ON UNIT   13 WITH FORMAT: (80I10)             



                     BOUNDARY ARRAY FOR LAYER  23
 READING ON UNIT   13 WITH FORMAT: (80I10)             



                     BOUNDARY ARRAY FOR LAYER  24
 READING ON UNIT   13 WITH FORMAT: (80I10)             



                     BOUNDARY ARRAY FOR LAYER  25
 READING ON UNIT   13 WITH FORMAT: (80I10)             



                     BOUNDARY ARRAY FOR LAYER  26
 READING ON UNIT   13 WITH FORMAT: (80I10)             



                     BOUNDARY ARRAY FOR LAYER  27
 READING ON UNIT   13 WITH FORMAT: (80I10)             



                     BOUNDARY ARRAY FOR LAYER  28
 READING ON UNIT   13 WITH FORMAT: (80I10)             



                     BOUNDARY ARRAY FOR LAYER  29
 READING ON UNIT   13 WITH FORMAT: (80I10)             



                     BOUNDARY ARRAY FOR LAYER  30
 READING ON UNIT   13 WITH FORMAT: (80I10)             



                     BOUNDARY ARRAY FOR LAYER  31
 READING ON UNIT   13 WITH FORMAT: (80I10)             



                     BOUNDARY ARRAY FOR LAYER  32
 READING ON UNIT   13 WITH FORMAT: (80I10)             



                     BOUNDARY ARRAY FOR LAYER  33
 READING ON UNIT   13 WITH FORMAT: (80I10)             



                     BOUNDARY ARRAY FOR LAYER  34
 READING ON UNIT   13 WITH FORMAT: (80I10)             



                     BOUNDARY ARRAY FOR LAYER  35
 READING ON UNIT   13 WITH FORMAT: (80I10)             



                     BOUNDARY ARRAY FOR LAYER  36
 READING ON UNIT   13 WITH FORMAT: (80I10)             



                     BOUNDARY ARRAY FOR LAYER  37
 READING ON UNIT   13 WITH FORMAT: (80I10)             



                     BOUNDARY ARRAY FOR LAYER  38
 READING ON UNIT   13 WITH FORMAT: (80I10)             



                     BOUNDARY ARRAY FOR LAYER  39
 READING ON UNIT   13 WITH FORMAT: (80I10)             



                     BOUNDARY ARRAY FOR LAYER  40
 READING ON UNIT   13 WITH FORMAT: (80I10)             

 AQUIFER HEAD WILL BE SET TO  -999.99     AT ALL NO-FLOW NODES (IBOUND=0).

             INITIAL HEAD =   1.00000     FOR LAYER   1

             INITIAL HEAD =   1.00000     FOR LAYER   2

             INITIAL HEAD =   1.00000     FOR LAYER   3

             INITIAL HEAD =   1.00000     FOR LAYER   4

             INITIAL HEAD =   1.00000     FOR LAYER   5

             INITIAL HEAD =   1.00000     FOR LAYER   6

             INITIAL HEAD =   1.00000     FOR LAYER   7

             INITIAL HEAD =   1.00000     FOR LAYER   8

             INITIAL HEAD =   1.00000     FOR LAYER   9

             INITIAL HEAD =   1.00000     FOR LAYER  10

             INITIAL HEAD =   1.00000     FOR LAYER  11

             INITIAL HEAD =   1.00000     FOR LAYER  12

             INITIAL HEAD =   1.00000     FOR LAYER  13

             INITIAL HEAD =   1.00000     FOR LAYER  14

             INITIAL HEAD =   1.00000     FOR LAYER  15

             INITIAL HEAD =   1.00000     FOR LAYER  16

             INITIAL HEAD =   1.00000     FOR LAYER  17

             INITIAL HEAD =   1.00000     FOR LAYER  18

             INITIAL HEAD =   1.00000     FOR LAYER  19

             INITIAL HEAD =   1.00000     FOR LAYER  20

             INITIAL HEAD =   1.00000     FOR LAYER  21

             INITIAL HEAD =   1.00000     FOR LAYER  22

             INITIAL HEAD =   1.00000     FOR LAYER  23

             INITIAL HEAD =   1.00000     FOR LAYER  24

             INITIAL HEAD =   1.00000     FOR LAYER  25

             INITIAL HEAD =   1.00000     FOR LAYER  26

             INITIAL HEAD =   1.00000     FOR LAYER  27

             INITIAL HEAD =   1.00000     FOR LAYER  28

             INITIAL HEAD =   1.00000     FOR LAYER  29

             INITIAL HEAD =   1.00000     FOR LAYER  30

             INITIAL HEAD =   1.00000     FOR LAYER  31

             INITIAL HEAD =   1.00000     FOR LAYER  32

             INITIAL HEAD =   1.00000     FOR LAYER  33

             INITIAL HEAD =   1.00000     FOR LAYER  34

             INITIAL HEAD =   1.00000     FOR LAYER  35

             INITIAL HEAD =   1.00000     FOR LAYER  36

             INITIAL HEAD =   1.00000     FOR LAYER  37

             INITIAL HEAD =   1.00000     FOR LAYER  38

             INITIAL HEAD =   1.00000     FOR LAYER  39

             INITIAL HEAD =   1.00000     FOR LAYER  40
 # OC package for MODFLOW-USG generated by Flopy 3.6.0

 OUTPUT CONTROL IS SPECIFIED ONLY AT TIME STEPS FOR WHICH OUTPUT IS DESIRED
 COMPACT CELL-BY-CELL BUDGET FILES WILL BE WRITTEN
 AUXILIARY DATA WILL BE SAVED IN CELL-BY-CELL BUDGET FILES
 HEAD PRINT FORMAT CODE IS   0    DRAWDOWN PRINT FORMAT CODE IS   0        CONC PRINT FORMAT CODE IS   0
 HEADS WILL BE SAVED ON UNIT   51    DRAWDOWNS WILL BE SAVED ON UNIT    0        CONCS WILL BE SAVED ON UNIT   52

 LPF -- LAYER-PROPERTY FLOW PACKAGE, VERSION 7, 5/2/2005
         INPUT READ FROM UNIT   15
 # LPF package for MODFLOW-USG generated by Flopy 3.6.0
 CELL-BY-CELL FLOWS WILL BE SAVED ON UNIT   53
 HEAD AT CELLS THAT CONVERT TO DRY= -1.00000E+30
 No named parameters
 IKCFLAG=0, NODAL INPUT OF HY AND CV

   LAYER FLAGS:
 LAYER       LAYTYP        LAYAVG         CHANI        LAYVKA        LAYWET
 ---------------------------------------------------------------------------
    1             0             0     1.000E+00             0             0
    2             0             0     1.000E+00             0             0
    3             0             0     1.000E+00             0             0
    4             0             0     1.000E+00             0             0
    5             0             0     1.000E+00             0             0
    6             0             0     1.000E+00             0             0
    7             0             0     1.000E+00             0             0
    8             0             0     1.000E+00             0             0
    9             0             0     1.000E+00             0             0
   10             0             0     1.000E+00             0             0
   11             0             0     1.000E+00             0             0
   12             0             0     1.000E+00             0             0
   13             0             0     1.000E+00             0             0
   14             0             0     1.000E+00             0             0
   15             0             0     1.000E+00             0             0
   16             0             0     1.000E+00             0             0
   17             0             0     1.000E+00             0             0
   18             0             0     1.000E+00             0             0
   19             0             0     1.000E+00             0             0
   20             0             0     1.000E+00             0             0
   21             0             0     1.000E+00             0             0
   22             0             0     1.000E+00             0             0
   23             0             0     1.000E+00             0             0
   24             0             0     1.000E+00             0             0
   25             0             0     1.000E+00             0             0
   26             0             0     1.000E+00             0             0
   27             0             0     1.000E+00             0             0
   28             0             0     1.000E+00             0             0
   29             0             0     1.000E+00             0             0
   30             0             0     1.000E+00             0             0
   31             0             0     1.000E+00             0             0
   32             0             0     1.000E+00             0             0
   33             0             0     1.000E+00             0             0
   34             0             0     1.000E+00             0             0
   35             0             0     1.000E+00             0             0
   36             0             0     1.000E+00             0             0
   37             0             0     1.000E+00             0             0
   38             0             0     1.000E+00             0             0
   39             0             0     1.000E+00             0             0
   40             0             0     1.000E+00             0             0

   INTERPRETATION OF LAYER FLAGS:
                        INTERBLOCK     HORIZONTAL    DATA IN
         LAYER TYPE   TRANSMISSIVITY   ANISOTROPY   ARRAY VKA   WETTABILITY
 LAYER      (LAYTYP)      (LAYAVG)       (CHANI)      (LAYVKA)      (LAYWET)
 ---------------------------------------------------------------------------
    1     CONFINED       HARMONIC     1.000E+00    VERTICAL K  NON-WETTABLE
    2     CONFINED       HARMONIC     1.000E+00    VERTICAL K  NON-WETTABLE
    3     CONFINED       HARMONIC     1.000E+00    VERTICAL K  NON-WETTABLE
    4     CONFINED       HARMONIC     1.000E+00    VERTICAL K  NON-WETTABLE
    5     CONFINED       HARMONIC     1.000E+00    VERTICAL K  NON-WETTABLE
    6     CONFINED       HARMONIC     1.000E+00    VERTICAL K  NON-WETTABLE
    7     CONFINED       HARMONIC     1.000E+00    VERTICAL K  NON-WETTABLE
    8     CONFINED       HARMONIC     1.000E+00    VERTICAL K  NON-WETTABLE
    9     CONFINED       HARMONIC     1.000E+00    VERTICAL K  NON-WETTABLE
   10     CONFINED       HARMONIC     1.000E+00    VERTICAL K  NON-WETTABLE
   11     CONFINED       HARMONIC     1.000E+00    VERTICAL K  NON-WETTABLE
   12     CONFINED       HARMONIC     1.000E+00    VERTICAL K  NON-WETTABLE
   13     CONFINED       HARMONIC     1.000E+00    VERTICAL K  NON-WETTABLE
   14     CONFINED       HARMONIC     1.000E+00    VERTICAL K  NON-WETTABLE
   15     CONFINED       HARMONIC     1.000E+00    VERTICAL K  NON-WETTABLE
   16     CONFINED       HARMONIC     1.000E+00    VERTICAL K  NON-WETTABLE
   17     CONFINED       HARMONIC     1.000E+00    VERTICAL K  NON-WETTABLE
   18     CONFINED       HARMONIC     1.000E+00    VERTICAL K  NON-WETTABLE
   19     CONFINED       HARMONIC     1.000E+00    VERTICAL K  NON-WETTABLE
   20     CONFINED       HARMONIC     1.000E+00    VERTICAL K  NON-WETTABLE
   21     CONFINED       HARMONIC     1.000E+00    VERTICAL K  NON-WETTABLE
   22     CONFINED       HARMONIC     1.000E+00    VERTICAL K  NON-WETTABLE
   23     CONFINED       HARMONIC     1.000E+00    VERTICAL K  NON-WETTABLE
   24     CONFINED       HARMONIC     1.000E+00    VERTICAL K  NON-WETTABLE
   25     CONFINED       HARMONIC     1.000E+00    VERTICAL K  NON-WETTABLE
   26     CONFINED       HARMONIC     1.000E+00    VERTICAL K  NON-WETTABLE
   27     CONFINED       HARMONIC     1.000E+00    VERTICAL K  NON-WETTABLE
   28     CONFINED       HARMONIC     1.000E+00    VERTICAL K  NON-WETTABLE
   29     CONFINED       HARMONIC     1.000E+00    VERTICAL K  NON-WETTABLE
   30     CONFINED       HARMONIC     1.000E+00    VERTICAL K  NON-WETTABLE
   31     CONFINED       HARMONIC     1.000E+00    VERTICAL K  NON-WETTABLE
   32     CONFINED       HARMONIC     1.000E+00    VERTICAL K  NON-WETTABLE
   33     CONFINED       HARMONIC     1.000E+00    VERTICAL K  NON-WETTABLE
   34     CONFINED       HARMONIC     1.000E+00    VERTICAL K  NON-WETTABLE
   35     CONFINED       HARMONIC     1.000E+00    VERTICAL K  NON-WETTABLE
   36     CONFINED       HARMONIC     1.000E+00    VERTICAL K  NON-WETTABLE
   37     CONFINED       HARMONIC     1.000E+00    VERTICAL K  NON-WETTABLE
   38     CONFINED       HARMONIC     1.000E+00    VERTICAL K  NON-WETTABLE
   39     CONFINED       HARMONIC     1.000E+00    VERTICAL K  NON-WETTABLE
   40     CONFINED       HARMONIC     1.000E+00    VERTICAL K  NON-WETTABLE

 WETTING CAPABILITY IS NOT ACTIVE IN ANY LAYER

    HYD. COND. ALONG ROWS =   864.000     FOR LAYER   1

      VERTICAL HYD. COND. =   864.000     FOR LAYER   1

         SPECIFIC STORAGE =  1.000000E-32 FOR LAYER   1

    HYD. COND. ALONG ROWS =   864.000     FOR LAYER   2

      VERTICAL HYD. COND. =   864.000     FOR LAYER   2

         SPECIFIC STORAGE =  1.000000E-32 FOR LAYER   2

    HYD. COND. ALONG ROWS =   864.000     FOR LAYER   3

      VERTICAL HYD. COND. =   864.000     FOR LAYER   3

         SPECIFIC STORAGE =  1.000000E-32 FOR LAYER   3

    HYD. COND. ALONG ROWS =   864.000     FOR LAYER   4

      VERTICAL HYD. COND. =   864.000     FOR LAYER   4

         SPECIFIC STORAGE =  1.000000E-32 FOR LAYER   4

    HYD. COND. ALONG ROWS =   864.000     FOR LAYER   5

      VERTICAL HYD. COND. =   864.000     FOR LAYER   5

         SPECIFIC STORAGE =  1.000000E-32 FOR LAYER   5

    HYD. COND. ALONG ROWS =   864.000     FOR LAYER   6

      VERTICAL HYD. COND. =   864.000     FOR LAYER   6

         SPECIFIC STORAGE =  1.000000E-32 FOR LAYER   6

    HYD. COND. ALONG ROWS =   864.000     FOR LAYER   7

      VERTICAL HYD. COND. =   864.000     FOR LAYER   7

         SPECIFIC STORAGE =  1.000000E-32 FOR LAYER   7

    HYD. COND. ALONG ROWS =   864.000     FOR LAYER   8

      VERTICAL HYD. COND. =   864.000     FOR LAYER   8

         SPECIFIC STORAGE =  1.000000E-32 FOR LAYER   8

    HYD. COND. ALONG ROWS =   864.000     FOR LAYER   9

      VERTICAL HYD. COND. =   864.000     FOR LAYER   9

         SPECIFIC STORAGE =  1.000000E-32 FOR LAYER   9

    HYD. COND. ALONG ROWS =   864.000     FOR LAYER  10

      VERTICAL HYD. COND. =   864.000     FOR LAYER  10

         SPECIFIC STORAGE =  1.000000E-32 FOR LAYER  10

    HYD. COND. ALONG ROWS =   864.000     FOR LAYER  11

      VERTICAL HYD. COND. =   864.000     FOR LAYER  11

         SPECIFIC STORAGE =  1.000000E-32 FOR LAYER  11

    HYD. COND. ALONG ROWS =   864.000     FOR LAYER  12

      VERTICAL HYD. COND. =   864.000     FOR LAYER  12

         SPECIFIC STORAGE =  1.000000E-32 FOR LAYER  12

    HYD. COND. ALONG ROWS =   864.000     FOR LAYER  13

      VERTICAL HYD. COND. =   864.000     FOR LAYER  13

         SPECIFIC STORAGE =  1.000000E-32 FOR LAYER  13

    HYD. COND. ALONG ROWS =   864.000     FOR LAYER  14

      VERTICAL HYD. COND. =   864.000     FOR LAYER  14

         SPECIFIC STORAGE =  1.000000E-32 FOR LAYER  14

    HYD. COND. ALONG ROWS =   864.000     FOR LAYER  15

      VERTICAL HYD. COND. =   864.000     FOR LAYER  15

         SPECIFIC STORAGE =  1.000000E-32 FOR LAYER  15

    HYD. COND. ALONG ROWS =   864.000     FOR LAYER  16

      VERTICAL HYD. COND. =   864.000     FOR LAYER  16

         SPECIFIC STORAGE =  1.000000E-32 FOR LAYER  16

    HYD. COND. ALONG ROWS =   864.000     FOR LAYER  17

      VERTICAL HYD. COND. =   864.000     FOR LAYER  17

         SPECIFIC STORAGE =  1.000000E-32 FOR LAYER  17

    HYD. COND. ALONG ROWS =   864.000     FOR LAYER  18

      VERTICAL HYD. COND. =   864.000     FOR LAYER  18

         SPECIFIC STORAGE =  1.000000E-32 FOR LAYER  18

    HYD. COND. ALONG ROWS =   864.000     FOR LAYER  19

      VERTICAL HYD. COND. =   864.000     FOR LAYER  19

         SPECIFIC STORAGE =  1.000000E-32 FOR LAYER  19

    HYD. COND. ALONG ROWS =   864.000     FOR LAYER  20

      VERTICAL HYD. COND. =   864.000     FOR LAYER  20

         SPECIFIC STORAGE =  1.000000E-32 FOR LAYER  20

    HYD. COND. ALONG ROWS =   864.000     FOR LAYER  21

      VERTICAL HYD. COND. =   864.000     FOR LAYER  21

         SPECIFIC STORAGE =  1.000000E-32 FOR LAYER  21

    HYD. COND. ALONG ROWS =   864.000     FOR LAYER  22

      VERTICAL HYD. COND. =   864.000     FOR LAYER  22

         SPECIFIC STORAGE =  1.000000E-32 FOR LAYER  22

    HYD. COND. ALONG ROWS =   864.000     FOR LAYER  23

      VERTICAL HYD. COND. =   864.000     FOR LAYER  23

         SPECIFIC STORAGE =  1.000000E-32 FOR LAYER  23

    HYD. COND. ALONG ROWS =   864.000     FOR LAYER  24

      VERTICAL HYD. COND. =   864.000     FOR LAYER  24

         SPECIFIC STORAGE =  1.000000E-32 FOR LAYER  24

    HYD. COND. ALONG ROWS =   864.000     FOR LAYER  25

      VERTICAL HYD. COND. =   864.000     FOR LAYER  25

         SPECIFIC STORAGE =  1.000000E-32 FOR LAYER  25

    HYD. COND. ALONG ROWS =   864.000     FOR LAYER  26

      VERTICAL HYD. COND. =   864.000     FOR LAYER  26

         SPECIFIC STORAGE =  1.000000E-32 FOR LAYER  26

    HYD. COND. ALONG ROWS =   864.000     FOR LAYER  27

      VERTICAL HYD. COND. =   864.000     FOR LAYER  27

         SPECIFIC STORAGE =  1.000000E-32 FOR LAYER  27

    HYD. COND. ALONG ROWS =   864.000     FOR LAYER  28

      VERTICAL HYD. COND. =   864.000     FOR LAYER  28

         SPECIFIC STORAGE =  1.000000E-32 FOR LAYER  28

    HYD. COND. ALONG ROWS =   864.000     FOR LAYER  29

      VERTICAL HYD. COND. =   864.000     FOR LAYER  29

         SPECIFIC STORAGE =  1.000000E-32 FOR LAYER  29

    HYD. COND. ALONG ROWS =   864.000     FOR LAYER  30

      VERTICAL HYD. COND. =   864.000     FOR LAYER  30

         SPECIFIC STORAGE =  1.000000E-32 FOR LAYER  30

    HYD. COND. ALONG ROWS =   864.000     FOR LAYER  31

      VERTICAL HYD. COND. =   864.000     FOR LAYER  31

         SPECIFIC STORAGE =  1.000000E-32 FOR LAYER  31

    HYD. COND. ALONG ROWS =   864.000     FOR LAYER  32

      VERTICAL HYD. COND. =   864.000     FOR LAYER  32

         SPECIFIC STORAGE =  1.000000E-32 FOR LAYER  32

    HYD. COND. ALONG ROWS =   864.000     FOR LAYER  33

      VERTICAL HYD. COND. =   864.000     FOR LAYER  33

         SPECIFIC STORAGE =  1.000000E-32 FOR LAYER  33

    HYD. COND. ALONG ROWS =   864.000     FOR LAYER  34

      VERTICAL HYD. COND. =   864.000     FOR LAYER  34

         SPECIFIC STORAGE =  1.000000E-32 FOR LAYER  34

    HYD. COND. ALONG ROWS =   864.000     FOR LAYER  35

      VERTICAL HYD. COND. =   864.000     FOR LAYER  35

         SPECIFIC STORAGE =  1.000000E-32 FOR LAYER  35

    HYD. COND. ALONG ROWS =   864.000     FOR LAYER  36

      VERTICAL HYD. COND. =   864.000     FOR LAYER  36

         SPECIFIC STORAGE =  1.000000E-32 FOR LAYER  36

    HYD. COND. ALONG ROWS =   864.000     FOR LAYER  37

      VERTICAL HYD. COND. =   864.000     FOR LAYER  37

         SPECIFIC STORAGE =  1.000000E-32 FOR LAYER  37

    HYD. COND. ALONG ROWS =   864.000     FOR LAYER  38

      VERTICAL HYD. COND. =   864.000     FOR LAYER  38

         SPECIFIC STORAGE =  1.000000E-32 FOR LAYER  38

    HYD. COND. ALONG ROWS =   864.000     FOR LAYER  39

      VERTICAL HYD. COND. =   864.000     FOR LAYER  39

         SPECIFIC STORAGE =  1.000000E-32 FOR LAYER  39

    HYD. COND. ALONG ROWS =   864.000     FOR LAYER  40

      VERTICAL HYD. COND. =   864.000     FOR LAYER  40

         SPECIFIC STORAGE =  1.000000E-32 FOR LAYER  40

 BCT -- BLOCK-CENTERED TRANSPORT PACKAGE, VER. 8, 9/12/2009
         INPUT READ FROM UNIT 35
 TRANSPORT FLAG (ITRNSP)                             =  1
 C-B-C FLUX FLAG OR UNIT NUMBER (IBCTCB)             =  0
 NUMBER OF MOBILE COMPONENTS (MCOMP)                 =  1
 ACTIVE DOMAIN SAME AS FOR FLOW FLAG (IC_IBOUND_FLG) =  1
 TVD SCHEME FLAG AND FCT COUNT (ITVD)                =  0
 ADSORPTION FLAG (IADSORB)                           =  0
 FLAG TO SOLVE FOR TOTAL CONCENTRATION (ICT)         =  0
 CONCENTRATION AT INACTIVE CELLS (CINACT)            =  -999.00    
 SOLVER TOLERANCE FOR TRANSPORT (CICLOSE)            =  0.10000E-05
 DISPERSION FLAG (IDISP)                             =  1
 CROSS-DISPERSION FLAG (IXDISP)                      =  0
 DIFFUSION COEFFICIENT (DIFFNC)                      =  0.57024    
 ZERO-ORDER DECAY FLAG (IZOD)                        =  0
 FIRST-ORDER DECAY FLAG (IFOD)                       =  0
 FLOW ERROR CORRECTION FLAG OR UNIT NUMBER (IFMBC)   =  0
 INDEX FOR SIMULATION OF HEAT TRANSPORT (IHEAT)      =  0
  NUMBER OF IMMOBILE COMPONENTS  (IMCOMP)             =  0
 INDEX FOR CLN-GW DISPERSION EQUATION (IDISPCLN)     =  0
 NUMBER OF SEQUENTIAL ITERATIONS (NSEQITR)           =  1
  TRANSPORT SIMULATION FOLLOWS FLOW ITRNSP = 1)

                 POROSITY =  0.350000     FOR LAYER   1

                 POROSITY =  0.350000     FOR LAYER   2

                 POROSITY =  0.350000     FOR LAYER   3

                 POROSITY =  0.350000     FOR LAYER   4

                 POROSITY =  0.350000     FOR LAYER   5

                 POROSITY =  0.350000     FOR LAYER   6

                 POROSITY =  0.350000     FOR LAYER   7

                 POROSITY =  0.350000     FOR LAYER   8

                 POROSITY =  0.350000     FOR LAYER   9

                 POROSITY =  0.350000     FOR LAYER  10

                 POROSITY =  0.350000     FOR LAYER  11

                 POROSITY =  0.350000     FOR LAYER  12

                 POROSITY =  0.350000     FOR LAYER  13

                 POROSITY =  0.350000     FOR LAYER  14

                 POROSITY =  0.350000     FOR LAYER  15

                 POROSITY =  0.350000     FOR LAYER  16

                 POROSITY =  0.350000     FOR LAYER  17

                 POROSITY =  0.350000     FOR LAYER  18

                 POROSITY =  0.350000     FOR LAYER  19

                 POROSITY =  0.350000     FOR LAYER  20

                 POROSITY =  0.350000     FOR LAYER  21

                 POROSITY =  0.350000     FOR LAYER  22

                 POROSITY =  0.350000     FOR LAYER  23

                 POROSITY =  0.350000     FOR LAYER  24

                 POROSITY =  0.350000     FOR LAYER  25

                 POROSITY =  0.350000     FOR LAYER  26

                 POROSITY =  0.350000     FOR LAYER  27

                 POROSITY =  0.350000     FOR LAYER  28

                 POROSITY =  0.350000     FOR LAYER  29

                 POROSITY =  0.350000     FOR LAYER  30

                 POROSITY =  0.350000     FOR LAYER  31

                 POROSITY =  0.350000     FOR LAYER  32

                 POROSITY =  0.350000     FOR LAYER  33

                 POROSITY =  0.350000     FOR LAYER  34

                 POROSITY =  0.350000     FOR LAYER  35

                 POROSITY =  0.350000     FOR LAYER  36

                 POROSITY =  0.350000     FOR LAYER  37

                 POROSITY =  0.350000     FOR LAYER  38

                 POROSITY =  0.350000     FOR LAYER  39

                 POROSITY =  0.350000     FOR LAYER  40

               FACE ANGLE =   0.00000    

        LONG DISPERSIVITY =   0.00000     FOR LAYER   1

        LONG DISPERSIVITY =   0.00000     FOR LAYER   2

        LONG DISPERSIVITY =   0.00000     FOR LAYER   3

        LONG DISPERSIVITY =   0.00000     FOR LAYER   4

        LONG DISPERSIVITY =   0.00000     FOR LAYER   5

        LONG DISPERSIVITY =   0.00000     FOR LAYER   6

        LONG DISPERSIVITY =   0.00000     FOR LAYER   7

        LONG DISPERSIVITY =   0.00000     FOR LAYER   8

        LONG DISPERSIVITY =   0.00000     FOR LAYER   9

        LONG DISPERSIVITY =   0.00000     FOR LAYER  10

        LONG DISPERSIVITY =   0.00000     FOR LAYER  11

        LONG DISPERSIVITY =   0.00000     FOR LAYER  12

        LONG DISPERSIVITY =   0.00000     FOR LAYER  13

        LONG DISPERSIVITY =   0.00000     FOR LAYER  14

        LONG DISPERSIVITY =   0.00000     FOR LAYER  15

        LONG DISPERSIVITY =   0.00000     FOR LAYER  16

        LONG DISPERSIVITY =   0.00000     FOR LAYER  17

        LONG DISPERSIVITY =   0.00000     FOR LAYER  18

        LONG DISPERSIVITY =   0.00000     FOR LAYER  19

        LONG DISPERSIVITY =   0.00000     FOR LAYER  20

        LONG DISPERSIVITY =   0.00000     FOR LAYER  21

        LONG DISPERSIVITY =   0.00000     FOR LAYER  22

        LONG DISPERSIVITY =   0.00000     FOR LAYER  23

        LONG DISPERSIVITY =   0.00000     FOR LAYER  24

        LONG DISPERSIVITY =   0.00000     FOR LAYER  25

        LONG DISPERSIVITY =   0.00000     FOR LAYER  26

        LONG DISPERSIVITY =   0.00000     FOR LAYER  27

        LONG DISPERSIVITY =   0.00000     FOR LAYER  28

        LONG DISPERSIVITY =   0.00000     FOR LAYER  29

        LONG DISPERSIVITY =   0.00000     FOR LAYER  30

        LONG DISPERSIVITY =   0.00000     FOR LAYER  31

        LONG DISPERSIVITY =   0.00000     FOR LAYER  32

        LONG DISPERSIVITY =   0.00000     FOR LAYER  33

        LONG DISPERSIVITY =   0.00000     FOR LAYER  34

        LONG DISPERSIVITY =   0.00000     FOR LAYER  35

        LONG DISPERSIVITY =   0.00000     FOR LAYER  36

        LONG DISPERSIVITY =   0.00000     FOR LAYER  37

        LONG DISPERSIVITY =   0.00000     FOR LAYER  38

        LONG DISPERSIVITY =   0.00000     FOR LAYER  39

        LONG DISPERSIVITY =   0.00000     FOR LAYER  40

        TRNS DISPERSIVITY =   0.00000     FOR LAYER   1

        TRNS DISPERSIVITY =   0.00000     FOR LAYER   2

        TRNS DISPERSIVITY =   0.00000     FOR LAYER   3

        TRNS DISPERSIVITY =   0.00000     FOR LAYER   4

        TRNS DISPERSIVITY =   0.00000     FOR LAYER   5

        TRNS DISPERSIVITY =   0.00000     FOR LAYER   6

        TRNS DISPERSIVITY =   0.00000     FOR LAYER   7

        TRNS DISPERSIVITY =   0.00000     FOR LAYER   8

        TRNS DISPERSIVITY =   0.00000     FOR LAYER   9

        TRNS DISPERSIVITY =   0.00000     FOR LAYER  10

        TRNS DISPERSIVITY =   0.00000     FOR LAYER  11

        TRNS DISPERSIVITY =   0.00000     FOR LAYER  12

        TRNS DISPERSIVITY =   0.00000     FOR LAYER  13

        TRNS DISPERSIVITY =   0.00000     FOR LAYER  14

        TRNS DISPERSIVITY =   0.00000     FOR LAYER  15

        TRNS DISPERSIVITY =   0.00000     FOR LAYER  16

        TRNS DISPERSIVITY =   0.00000     FOR LAYER  17

        TRNS DISPERSIVITY =   0.00000     FOR LAYER  18

        TRNS DISPERSIVITY =   0.00000     FOR LAYER  19

        TRNS DISPERSIVITY =   0.00000     FOR LAYER  20

        TRNS DISPERSIVITY =   0.00000     FOR LAYER  21

        TRNS DISPERSIVITY =   0.00000     FOR LAYER  22

        TRNS DISPERSIVITY =   0.00000     FOR LAYER  23

        TRNS DISPERSIVITY =   0.00000     FOR LAYER  24

        TRNS DISPERSIVITY =   0.00000     FOR LAYER  25

        TRNS DISPERSIVITY =   0.00000     FOR LAYER  26

        TRNS DISPERSIVITY =   0.00000     FOR LAYER  27

        TRNS DISPERSIVITY =   0.00000     FOR LAYER  28

        TRNS DISPERSIVITY =   0.00000     FOR LAYER  29

        TRNS DISPERSIVITY =   0.00000     FOR LAYER  30

        TRNS DISPERSIVITY =   0.00000     FOR LAYER  31

        TRNS DISPERSIVITY =   0.00000     FOR LAYER  32

        TRNS DISPERSIVITY =   0.00000     FOR LAYER  33

        TRNS DISPERSIVITY =   0.00000     FOR LAYER  34

        TRNS DISPERSIVITY =   0.00000     FOR LAYER  35

        TRNS DISPERSIVITY =   0.00000     FOR LAYER  36

        TRNS DISPERSIVITY =   0.00000     FOR LAYER  37

        TRNS DISPERSIVITY =   0.00000     FOR LAYER  38

        TRNS DISPERSIVITY =   0.00000     FOR LAYER  39

        TRNS DISPERSIVITY =   0.00000     FOR LAYER  40
--------------------------------------------------------------------------------
 THE FOLLOWING ARRAYS ARE READ FOR COMPONENT NUMBER   1

            CONCENTRATION =   35.0000     FOR LAYER   1

            CONCENTRATION =   35.0000     FOR LAYER   2

            CONCENTRATION =   35.0000     FOR LAYER   3

            CONCENTRATION =   35.0000     FOR LAYER   4

            CONCENTRATION =   35.0000     FOR LAYER   5

            CONCENTRATION =   35.0000     FOR LAYER   6

            CONCENTRATION =   35.0000     FOR LAYER   7

            CONCENTRATION =   35.0000     FOR LAYER   8

            CONCENTRATION =   35.0000     FOR LAYER   9

            CONCENTRATION =   35.0000     FOR LAYER  10

            CONCENTRATION =   35.0000     FOR LAYER  11

            CONCENTRATION =   35.0000     FOR LAYER  12

            CONCENTRATION =   35.0000     FOR LAYER  13

            CONCENTRATION =   35.0000     FOR LAYER  14

            CONCENTRATION =   35.0000     FOR LAYER  15

            CONCENTRATION =   35.0000     FOR LAYER  16

            CONCENTRATION =   35.0000     FOR LAYER  17

            CONCENTRATION =   35.0000     FOR LAYER  18

            CONCENTRATION =   35.0000     FOR LAYER  19

            CONCENTRATION =   35.0000     FOR LAYER  20

            CONCENTRATION =   35.0000     FOR LAYER  21

            CONCENTRATION =   35.0000     FOR LAYER  22

            CONCENTRATION =   35.0000     FOR LAYER  23

            CONCENTRATION =   35.0000     FOR LAYER  24

            CONCENTRATION =   35.0000     FOR LAYER  25

            CONCENTRATION =   35.0000     FOR LAYER  26

            CONCENTRATION =   35.0000     FOR LAYER  27

            CONCENTRATION =   35.0000     FOR LAYER  28

            CONCENTRATION =   35.0000     FOR LAYER  29

            CONCENTRATION =   35.0000     FOR LAYER  30

            CONCENTRATION =   35.0000     FOR LAYER  31

            CONCENTRATION =   35.0000     FOR LAYER  32

            CONCENTRATION =   35.0000     FOR LAYER  33

            CONCENTRATION =   35.0000     FOR LAYER  34

            CONCENTRATION =   35.0000     FOR LAYER  35

            CONCENTRATION =   35.0000     FOR LAYER  36

            CONCENTRATION =   35.0000     FOR LAYER  37

            CONCENTRATION =   35.0000     FOR LAYER  38

            CONCENTRATION =   35.0000     FOR LAYER  39

            CONCENTRATION =   35.0000     FOR LAYER  40

 DDF -- DENSITY DEPENDENT FLOW MODULE VERSION 1, 4/4/2016 INPUT READ FROM UNIT   36
 DENSITY OF FRESHWATER (RHOFRESH) =       1000.000
 DENSITY OF STANDARD SOLUTION (RHOSTD) =       1025.000
 CONCENTRATION OF STANDARD SOLUTION (CSTD) =         35.000
 FLAG FOR USING THICKNESS WEIGHTED AVERAGE (ITHICKAV) = 0
 FLAG FOR IMPLICIT TREATMENT OF HEAD TERM (IMPHDD) = 0
 FLAG FOR SHARP INTERFACE MODEL (ISHARP) = 0

 WEL -- WELL PACKAGE, VERSION 7, 5/2/2005 INPUT READ FROM UNIT   20
 # WEL package for MODFLOW-USG generated by Flopy 3.6.0
 No named parameters
 MAXIMUM OF     40 ACTIVE WELLS AT ONE TIME
 CELL-BY-CELL FLOWS WILL BE SAVED ON UNIT   53
 MAXIMUM NUMBER OF ACTIVE WELLS (MXACTW) =     40
 C-B-C FLUX FLAG OR UNIT NUMBER (IWELCB) =  53
 AUXILIARY WELL VARIABLE: C01             


     0 Well parameters

 GHB -- GENERAL-HEAD BOUNDARY PACKAGE, VERSION 7, 5/2/2005
         INPUT READ FROM UNIT   23
 # GHB package for MODFLOW-USG generated by Flopy 3.6.0
 No named parameters
 MAXIMUM OF       40 ACTIVE GHB CELLS AT ONE TIME
 AUXILIARY GHB VARIABLE: C01             


     0 GHB parameters

 SMS -- SPARSE MATRIX SOLVER PACKAGE, VERSION 7, 5/2/2005
         INPUT READ FROM UNIT 32
 # SMS package for MODFLOW-USG generated by Flopy 3.6.0
 No named parameters
  ALL SOLVER INPUT DATA WILL BE READ FROM THE SOLVER INPUT FILE. 
 OUTER ITERATION CONVERGENCE CRITERION (HCLOSE) =    0.100000E-04
 INNER ITERATION CONVERGENCE CRITERION (HICLOSE) =    0.100000E-05
 MAXIMUM NUMBER OF OUTER ITERATIONS (MXITER)     =       500
 MAXIMUM NUMBER OF INNER ITERATIONS (ITER1)      =        50
 SOLVER PRINTOUT INDEX             (IPRSMS)      =         2
 NONLINEAR ITERATION METHOD    (NONLINMETH)      =         2
 LINEAR SOLUTION METHOD           (LINMETH)      =         2
 D-B-D WEIGHT REDUCTION FACTOR      (THETA)      =    0.700000E+00
 D-B-D WEIGHT INCREASE INCREMENT    (KAPPA)      =    0.700000E-01
 D-B-D PREVIOUS HISTORY FACTOR      (GAMMA)      =    0.300000E+00
 MOMENTUM TERM                  (AMOMENTUM)      =    0.100000E+00
 MAXIMUM NUMBER OF BACKTRACKS    (NUMTRACK)      =       200
 BACKTRACKING TOLERANCE FACTOR       (BTOL)      =    0.210000E+01
 BACKTRACKING REDUCTION FACTOR     (BREDUC)      =    0.100000E+00
 BACKTRACKING RESIDUAL LIMIT      (RES_LIM)      =    0.100000E+01
 TRUNCATED NEWTON FLAG     (ITRUNCNEWTON)      =         0
 ***Newton Linearization will be used***
 
 ***PCGU linear solver will be used***

 PCGU -- UNSTRUCTURED CONJUGATE-GRADIENT SOLUTION PACKAGE, VERSION 7.02, 08/13/2013

              SOLUTION BY THE CONJUGATE-GRADIENT METHOD
 ------------------------------------------------------------------
 MAXIMUM OF    500 CALLS OF SOLUTION ROUTINE
 MAXIMUM OF     50 INTERNAL ITERATIONS PER CALL TO SOLUTION ROUTINE
 LINEAR ACCELERATION METHOD            = BCGS      
 MATRIX PRECONDITIONING TYPE           = MOD. INCOMPLETE LU  
 MATRIX SCALING APPROACH               = NO SCALING          
 MATRIX REORDERING APPROACH            = ORIGINAL ORDERING        
 HEAD CHANGE CRITERION FOR CLOSURE     =    0.10000E-05
 RESIDUAL CHANGE CRITERION FOR CLOSURE =    0.10000E+00
 RELAXATION FACTOR                     =    0.10000E+01
  ONLY USED WITH MILU0 PRECONDITIONER


 
1
                            STRESS PERIOD NO.     1, LENGTH =   1.000000    
                            -----------------------------------------------

                              NUMBER OF TIME STEPS =         1

                               MULTIPLIER FOR DELT =     1.000

                            INITIAL TIME STEP SIZE =   1.000000    

 WEL -- WELL PACKAGE, VERSION 7, 5/2/2005 INPUT READ FROM UNIT   20

 WELL NO.      NODE       STRESS FACTOR         C01             
 ---------------------------------------------------------------
        1            1      0.1426           35.00    
        2           81      0.1426           35.00    
        3          161      0.1426           35.00    
        4          241      0.1426           35.00    
        5          321      0.1426           35.00    
        6          401      0.1426           35.00    
        7          481      0.1426           35.00    
        8          561      0.1426           35.00    
        9          641      0.1426           35.00    
       10          721      0.1426           35.00    
       11          801      0.1426           35.00    
       12          881      0.1426           35.00    
       13          961      0.1426           35.00    
       14         1041      0.1426           35.00    
       15         1121      0.1426           35.00    
       16         1201      0.1426           35.00    
       17         1281      0.1426           35.00    
       18         1361      0.1426           35.00    
       19         1441      0.1426           35.00    
       20         1521      0.1426           35.00    
       21         1601      0.1426           35.00    
       22         1681      0.1426           35.00    
       23         1761      0.1426           35.00    
       24         1841      0.1426           35.00    
       25         1921      0.1426           35.00    
       26         2001      0.1426           35.00    
       27         2081      0.1426           35.00    
       28         2161      0.1426           35.00    
       29         2241      0.1426           35.00    
       30         2321      0.1426           35.00    
       31         2401      0.1426           35.00    
       32         2481      0.1426           35.00    
       33         2561      0.1426           35.00    
       34         2641      0.1426           35.00    
       35         2721      0.1426           35.00    
       36         2801      0.1426           35.00    
       37         2881      0.1426           35.00    
       38         2961      0.1426           35.00    
       39         3041      0.1426           35.00    
       40         3121      0.1426           35.00    

     40 WELLS

 GHB -- GENERAL-HEAD BOUNDARY PACKAGE, VERSION 7, 5/2/2005
         INPUT READ FROM UNIT   23

 BOUND NO.     NODE         STAGE         CONDUCTANCE         C01             
 -----------------------------------------------------------------------------
        1           80       1.000           1728.           35.00    
        2          160       1.000           1728.           35.00    
        3          240       1.000           1728.           35.00    
        4          320       1.000           1728.           35.00    
        5          400       1.000           1728.           35.00    
        6          480       1.000           1728.           35.00    
        7          560       1.000           1728.           35.00    
        8          640       1.000           1728.           35.00    
        9          720       1.000           1728.           35.00    
       10          800       1.000           1728.           35.00    
       11          880       1.000           1728.           35.00    
       12          960       1.000           1728.           35.00    
       13         1040       1.000           1728.           35.00    
       14         1120       1.000           1728.           35.00    
       15         1200       1.000           1728.           35.00    
       16         1280       1.000           1728.           35.00    
       17         1360       1.000           1728.           35.00    
       18         1440       1.000           1728.           35.00    
       19         1520       1.000           1728.           35.00    
       20         1600       1.000           1728.           35.00    
       21         1680       1.000           1728.           35.00    
       22         1760       1.000           1728.           35.00    
       23         1840       1.000           1728.           35.00    
       24         1920       1.000           1728.           35.00    
       25         2000       1.000           1728.           35.00    
       26         2080       1.000           1728.           35.00    
       27         2160       1.000           1728.           35.00    
       28         2240       1.000           1728.           35.00    
       29         2320       1.000           1728.           35.00    
       30         2400       1.000           1728.           35.00    
       31         2480       1.000           1728.           35.00    
       32         2560       1.000           1728.           35.00    
       33         2640       1.000           1728.           35.00    
       34         2720       1.000           1728.           35.00    
       35         2800       1.000           1728.           35.00    
       36         2880       1.000           1728.           35.00    
       37         2960       1.000           1728.           35.00    
       38         3040       1.000           1728.           35.00    
       39         3120       1.000           1728.           35.00    
       40         3200       1.000           1728.           35.00    

       40 GHB CELLS
 -------------------------------------------------------------------------------------
 
 SOLVING FOR HEAD 

 Outer-Iteration  Inner-Iteration  Backtracking  Number of        Incoming       Outgoing      Cutoff     Maximum Head Change      Maximum Head Change
     Number           Count           Flag       Backtracks       Residual       Residual      Residual            Value               Location
        1                             0             0          0.812820         0.812820       -1.00000    
        1               21                                                                                       0.127995E-01               3121           GWF-node number
        2                             0             0          0.147813E-06     0.147813E-06   -1.00000    
        2                1                                                                                      -0.518790E-06               2505           GWF-node number


     2 CALLS TO SPARSE MATRIX SOLVER PACKAGE  IN FLOW TIME STEP       1 STRESS PERIOD       1

 TOTAL OF       2OUTER ITERATIONS
  MAXIMUM CHANGE FOR EACH ITERATION:
   MAX. CHANGE        NODE  MAX. CHANGE        NODE  MAX. CHANGE        NODE  MAX. CHANGE        NODE  MAX. CHANGE        NODE
 ------------------------------------------------------------------------------------------------------------------------------------
   0.12799E-01,       3121 -0.51879E-06,       2505

 OUTPUT CONTROL FOR STRESS PERIOD        1   TIME STEP        1
    PRINT BUDGET
    PRINT HEAD FOR ALL LAYERS
    SAVE HEAD FOR ALL LAYERS
    SAVE BUDGET
    SAVE CONC FOR ALL LAYERS
 UBDSV1U SAVING " DENSITY STORAGE" ON UNIT  53 AT TIME STEP      1, STRESS PERIOD      1
 UBDSV2U SAVING "   CONSTANT HEAD" ON UNIT  53 AT TIME STEP      1, STRESS PERIOD      1
 UBDSV1U SAVING "   FLOW JA FACE " ON UNIT  53 AT TIME STEP      1, STRESS PERIOD      1
 UBDSV4U SAVING "           WELLS" ON UNIT  53 AT TIME STEP      1, STRESS PERIOD      1
1
             HEADU IN LAYER       1 AT END OF TIME STEP       1 IN STRESS PERIOD       1 STRESS TIME    1.00000     TOTAL TIME    1.00000    
  -----------------------------------------------------------------------------------------------------------------------------------------
        1..    1.013       1.013       1.012       1.012       1.012       1.012       1.012       1.012       1.012       1.011    
       11..    1.011       1.011       1.011       1.011       1.011       1.010       1.010       1.010       1.010       1.010    
       21..    1.010       1.009       1.009       1.009       1.009       1.009       1.009       1.008       1.008       1.008    
       31..    1.008       1.008       1.008       1.007       1.007       1.007       1.007       1.007       1.007       1.007    
       41..    1.006       1.006       1.006       1.006       1.006       1.006       1.005       1.005       1.005       1.005    
       51..    1.005       1.005       1.004       1.004       1.004       1.004       1.004       1.004       1.003       1.003    
       61..    1.003       1.003       1.003       1.003       1.002       1.002       1.002       1.002       1.002       1.002    
       71..    1.002       1.001       1.001       1.001       1.001       1.001       1.001       1.000       1.000       1.000    
1
             HEADU IN LAYER       2 AT END OF TIME STEP       1 IN STRESS PERIOD       1 STRESS TIME    1.00000     TOTAL TIME    1.00000    
  -----------------------------------------------------------------------------------------------------------------------------------------
       81..    1.013       1.013       1.012       1.012       1.012       1.012       1.012       1.012       1.012       1.011    
       91..    1.011       1.011       1.011       1.011       1.011       1.010       1.010       1.010       1.010       1.010    
      101..    1.010       1.009       1.009       1.009       1.009       1.009       1.009       1.008       1.008       1.008    
      111..    1.008       1.008       1.008       1.007       1.007       1.007       1.007       1.007       1.007       1.007    
      121..    1.006       1.006       1.006       1.006       1.006       1.006       1.005       1.005       1.005       1.005    
      131..    1.005       1.005       1.004       1.004       1.004       1.004       1.004       1.004       1.003       1.003    
      141..    1.003       1.003       1.003       1.003       1.002       1.002       1.002       1.002       1.002       1.002    
      151..    1.002       1.001       1.001       1.001       1.001       1.001       1.001       1.000       1.000       1.000    
1
             HEADU IN LAYER       3 AT END OF TIME STEP       1 IN STRESS PERIOD       1 STRESS TIME    1.00000     TOTAL TIME    1.00000    
  -----------------------------------------------------------------------------------------------------------------------------------------
      161..    1.013       1.013       1.012       1.012       1.012       1.012       1.012       1.012       1.012       1.011    
      171..    1.011       1.011       1.011       1.011       1.011       1.010       1.010       1.010       1.010       1.010    
      181..    1.010       1.009       1.009       1.009       1.009       1.009       1.009       1.008       1.008       1.008    
      191..    1.008       1.008       1.008       1.007       1.007       1.007       1.007       1.007       1.007       1.007    
      201..    1.006       1.006       1.006       1.006       1.006       1.006       1.005       1.005       1.005       1.005    
      211..    1.005       1.005       1.004       1.004       1.004       1.004       1.004       1.004       1.003       1.003    
      221..    1.003       1.003       1.003       1.003       1.002       1.002       1.002       1.002       1.002       1.002    
      231..    1.002       1.001       1.001       1.001       1.001       1.001       1.001       1.000       1.000       1.000    
1
             HEADU IN LAYER       4 AT END OF TIME STEP       1 IN STRESS PERIOD       1 STRESS TIME    1.00000     TOTAL TIME    1.00000    
  -----------------------------------------------------------------------------------------------------------------------------------------
      241..    1.013       1.013       1.012       1.012       1.012       1.012       1.012       1.012       1.012       1.011    
      251..    1.011       1.011       1.011       1.011       1.011       1.010       1.010       1.010       1.010       1.010    
      261..    1.010       1.009       1.009       1.009       1.009       1.009       1.009       1.008       1.008       1.008    
      271..    1.008       1.008       1.008       1.007       1.007       1.007       1.007       1.007       1.007       1.007    
      281..    1.006       1.006       1.006       1.006       1.006       1.006       1.005       1.005       1.005       1.005    
      291..    1.005       1.005       1.004       1.004       1.004       1.004       1.004       1.004       1.003       1.003    
      301..    1.003       1.003       1.003       1.003       1.002       1.002       1.002       1.002       1.002       1.002    
      311..    1.002       1.001       1.001       1.001       1.001       1.001       1.001       1.000       1.000       1.000    
1
             HEADU IN LAYER       5 AT END OF TIME STEP       1 IN STRESS PERIOD       1 STRESS TIME    1.00000     TOTAL TIME    1.00000    
  -----------------------------------------------------------------------------------------------------------------------------------------
      321..    1.013       1.013       1.012       1.012       1.012       1.012       1.012       1.012       1.012       1.011    
      331..    1.011       1.011       1.011       1.011       1.011       1.010       1.010       1.010       1.010       1.010    
      341..    1.010       1.009       1.009       1.009       1.009       1.009       1.009       1.008       1.008       1.008    
      351..    1.008       1.008       1.008       1.007       1.007       1.007       1.007       1.007       1.007       1.007    
      361..    1.006       1.006       1.006       1.006       1.006       1.006       1.005       1.005       1.005       1.005    
      371..    1.005       1.005       1.004       1.004       1.004       1.004       1.004       1.004       1.003       1.003    
      381..    1.003       1.003       1.003       1.003       1.002       1.002       1.002       1.002       1.002       1.002    
      391..    1.002       1.001       1.001       1.001       1.001       1.001       1.001       1.000       1.000       1.000    
1
             HEADU IN LAYER       6 AT END OF TIME STEP       1 IN STRESS PERIOD       1 STRESS TIME    1.00000     TOTAL TIME    1.00000    
  -----------------------------------------------------------------------------------------------------------------------------------------
      401..    1.013       1.013       1.012       1.012       1.012       1.012       1.012       1.012       1.012       1.011    
      411..    1.011       1.011       1.011       1.011       1.011       1.010       1.010       1.010       1.010       1.010    
      421..    1.010       1.009       1.009       1.009       1.009       1.009       1.009       1.008       1.008       1.008    
      431..    1.008       1.008       1.008       1.007       1.007       1.007       1.007       1.007       1.007       1.007    
      441..    1.006       1.006       1.006       1.006       1.006       1.006       1.005       1.005       1.005       1.005    
      451..    1.005       1.005       1.004       1.004       1.004       1.004       1.004       1.004       1.003       1.003    
      461..    1.003       1.003       1.003       1.003       1.002       1.002       1.002       1.002       1.002       1.002    
      471..    1.002       1.001       1.001       1.001       1.001       1.001       1.001       1.000       1.000       1.000    
1
             HEADU IN LAYER       7 AT END OF TIME STEP       1 IN STRESS PERIOD       1 STRESS TIME    1.00000     TOTAL TIME    1.00000    
  -----------------------------------------------------------------------------------------------------------------------------------------
      481..    1.013       1.013       1.012       1.012       1.012       1.012       1.012       1.012       1.012       1.011    
      491..    1.011       1.011       1.011       1.011       1.011       1.010       1.010       1.010       1.010       1.010    
      501..    1.010       1.009       1.009       1.009       1.009       1.009       1.009       1.008       1.008       1.008    
      511..    1.008       1.008       1.008       1.007       1.007       1.007       1.007       1.007       1.007       1.007    
      521..    1.006       1.006       1.006       1.006       1.006       1.006       1.005       1.005       1.005       1.005    
      531..    1.005       1.005       1.004       1.004       1.004       1.004       1.004       1.004       1.003       1.003    
      541..    1.003       1.003       1.003       1.003       1.002       1.002       1.002       1.002       1.002       1.002    
      551..    1.002       1.001       1.001       1.001       1.001       1.001       1.001       1.000       1.000       1.000    
1
             HEADU IN LAYER       8 AT END OF TIME STEP       1 IN STRESS PERIOD       1 STRESS TIME    1.00000     TOTAL TIME    1.00000    
  -----------------------------------------------------------------------------------------------------------------------------------------
      561..    1.013       1.013       1.012       1.012       1.012       1.012       1.012       1.012       1.012       1.011    
      571..    1.011       1.011       1.011       1.011       1.011       1.010       1.010       1.010       1.010       1.010    
      581..    1.010       1.009       1.009       1.009       1.009       1.009       1.009       1.008       1.008       1.008    
      591..    1.008       1.008       1.008       1.007       1.007       1.007       1.007       1.007       1.007       1.007    
      601..    1.006       1.006       1.006       1.006       1.006       1.006       1.005       1.005       1.005       1.005    
      611..    1.005       1.005       1.004       1.004       1.004       1.004       1.004       1.004       1.003       1.003    
      621..    1.003       1.003       1.003       1.003       1.002       1.002       1.002       1.002       1.002       1.002    
      631..    1.002       1.001       1.001       1.001       1.001       1.001       1.001       1.000       1.000       1.000    
1
             HEADU IN LAYER       9 AT END OF TIME STEP       1 IN STRESS PERIOD       1 STRESS TIME    1.00000     TOTAL TIME    1.00000    
  -----------------------------------------------------------------------------------------------------------------------------------------
      641..    1.013       1.013       1.012       1.012       1.012       1.012       1.012       1.012       1.012       1.011    
      651..    1.011       1.011       1.011       1.011       1.011       1.010       1.010       1.010       1.010       1.010    
      661..    1.010       1.009       1.009       1.009       1.009       1.009       1.009       1.008       1.008       1.008    
      671..    1.008       1.008       1.008       1.007       1.007       1.007       1.007       1.007       1.007       1.007    
      681..    1.006       1.006       1.006       1.006       1.006       1.006       1.005       1.005       1.005       1.005    
      691..    1.005       1.005       1.004       1.004       1.004       1.004       1.004       1.004       1.003       1.003    
      701..    1.003       1.003       1.003       1.003       1.002       1.002       1.002       1.002       1.002       1.002    
      711..    1.002       1.001       1.001       1.001       1.001       1.001       1.001       1.000       1.000       1.000    
1
             HEADU IN LAYER      10 AT END OF TIME STEP       1 IN STRESS PERIOD       1 STRESS TIME    1.00000     TOTAL TIME    1.00000    
  -----------------------------------------------------------------------------------------------------------------------------------------
      721..    1.013       1.013       1.012       1.012       1.012       1.012       1.012       1.012       1.012       1.011    
      731..    1.011       1.011       1.011       1.011       1.011       1.010       1.010       1.010       1.010       1.010    
      741..    1.010       1.009       1.009       1.009       1.009       1.009       1.009       1.008       1.008       1.008    
      751..    1.008       1.008       1.008       1.007       1.007       1.007       1.007       1.007       1.007       1.007    
      761..    1.006       1.006       1.006       1.006       1.006       1.006       1.005       1.005       1.005       1.005    
      771..    1.005       1.005       1.004       1.004       1.004       1.004       1.004       1.004       1.003       1.003    
      781..    1.003       1.003       1.003       1.003       1.002       1.002       1.002       1.002       1.002       1.002    
      791..    1.002       1.001       1.001       1.001       1.001       1.001       1.001       1.000       1.000       1.000    
1
             HEADU IN LAYER      11 AT END OF TIME STEP       1 IN STRESS PERIOD       1 STRESS TIME    1.00000     TOTAL TIME    1.00000    
  -----------------------------------------------------------------------------------------------------------------------------------------
      801..    1.013       1.013       1.012       1.012       1.012       1.012       1.012       1.012       1.012       1.011    
      811..    1.011       1.011       1.011       1.011       1.011       1.010       1.010       1.010       1.010       1.010    
      821..    1.010       1.009       1.009       1.009       1.009       1.009       1.009       1.008       1.008       1.008    
      831..    1.008       1.008       1.008       1.007       1.007       1.007       1.007       1.007       1.007       1.007    
      841..    1.006       1.006       1.006       1.006       1.006       1.006       1.005       1.005       1.005       1.005    
      851..    1.005       1.005       1.004       1.004       1.004       1.004       1.004       1.004       1.003       1.003    
      861..    1.003       1.003       1.003       1.003       1.002       1.002       1.002       1.002       1.002       1.002    
      871..    1.002       1.001       1.001       1.001       1.001       1.001       1.001       1.000       1.000       1.000    
1
             HEADU IN LAYER      12 AT END OF TIME STEP       1 IN STRESS PERIOD       1 STRESS TIME    1.00000     TOTAL TIME    1.00000    
  -----------------------------------------------------------------------------------------------------------------------------------------
      881..    1.013       1.013       1.012       1.012       1.012       1.012       1.012       1.012       1.012       1.011    
      891..    1.011       1.011       1.011       1.011       1.011       1.010       1.010       1.010       1.010       1.010    
      901..    1.010       1.009       1.009       1.009       1.009       1.009       1.009       1.008       1.008       1.008    
      911..    1.008       1.008       1.008       1.007       1.007       1.007       1.007       1.007       1.007       1.007    
      921..    1.006       1.006       1.006       1.006       1.006       1.006       1.005       1.005       1.005       1.005    
      931..    1.005       1.005       1.004       1.004       1.004       1.004       1.004       1.004       1.003       1.003    
      941..    1.003       1.003       1.003       1.003       1.002       1.002       1.002       1.002       1.002       1.002    
      951..    1.002       1.001       1.001       1.001       1.001       1.001       1.001       1.000       1.000       1.000    
1
             HEADU IN LAYER      13 AT END OF TIME STEP       1 IN STRESS PERIOD       1 STRESS TIME    1.00000     TOTAL TIME    1.00000    
  -----------------------------------------------------------------------------------------------------------------------------------------
      961..    1.013       1.013       1.012       1.012       1.012       1.012       1.012       1.012       1.012       1.011    
      971..    1.011       1.011       1.011       1.011       1.011       1.010       1.010       1.010       1.010       1.010    
      981..    1.010       1.009       1.009       1.009       1.009       1.009       1.009       1.008       1.008       1.008    
      991..    1.008       1.008       1.008       1.007       1.007       1.007       1.007       1.007       1.007       1.007    
     1001..    1.006       1.006       1.006       1.006       1.006       1.006       1.005       1.005       1.005       1.005    
     1011..    1.005       1.005       1.004       1.004       1.004       1.004       1.004       1.004       1.003       1.003    
     1021..    1.003       1.003       1.003       1.003       1.002       1.002       1.002       1.002       1.002       1.002    
     1031..    1.002       1.001       1.001       1.001       1.001       1.001       1.001       1.000       1.000       1.000    
1
             HEADU IN LAYER      14 AT END OF TIME STEP       1 IN STRESS PERIOD       1 STRESS TIME    1.00000     TOTAL TIME    1.00000    
  -----------------------------------------------------------------------------------------------------------------------------------------
     1041..    1.013       1.013       1.012       1.012       1.012       1.012       1.012       1.012       1.012       1.011    
     1051..    1.011       1.011       1.011       1.011       1.011       1.010       1.010       1.010       1.010       1.010    
     1061..    1.010       1.009       1.009       1.009       1.009       1.009       1.009       1.008       1.008       1.008    
     1071..    1.008       1.008       1.008       1.007       1.007       1.007       1.007       1.007       1.007       1.007    
     1081..    1.006       1.006       1.006       1.006       1.006       1.006       1.005       1.005       1.005       1.005    
     1091..    1.005       1.005       1.004       1.004       1.004       1.004       1.004       1.004       1.003       1.003    
     1101..    1.003       1.003       1.003       1.003       1.002       1.002       1.002       1.002       1.002       1.002    
     1111..    1.002       1.001       1.001       1.001       1.001       1.001       1.001       1.000       1.000       1.000    
1
             HEADU IN LAYER      15 AT END OF TIME STEP       1 IN STRESS PERIOD       1 STRESS TIME    1.00000     TOTAL TIME    1.00000    
  -----------------------------------------------------------------------------------------------------------------------------------------
     1121..    1.013       1.013       1.012       1.012       1.012       1.012       1.012       1.012       1.012       1.011    
     1131..    1.011       1.011       1.011       1.011       1.011       1.010       1.010       1.010       1.010       1.010    
     1141..    1.010       1.009       1.009       1.009       1.009       1.009       1.009       1.008       1.008       1.008    
     1151..    1.008       1.008       1.008       1.007       1.007       1.007       1.007       1.007       1.007       1.007    
     1161..    1.006       1.006       1.006       1.006       1.006       1.006       1.005       1.005       1.005       1.005    
     1171..    1.005       1.005       1.004       1.004       1.004       1.004       1.004       1.004       1.003       1.003    
     1181..    1.003       1.003       1.003       1.003       1.002       1.002       1.002       1.002       1.002       1.002    
     1191..    1.002       1.001       1.001       1.001       1.001       1.001       1.001       1.000       1.000       1.000    
1
             HEADU IN LAYER      16 AT END OF TIME STEP       1 IN STRESS PERIOD       1 STRESS TIME    1.00000     TOTAL TIME    1.00000    
  -----------------------------------------------------------------------------------------------------------------------------------------
     1201..    1.013       1.013       1.012       1.012       1.012       1.012       1.012       1.012       1.012       1.011    
     1211..    1.011       1.011       1.011       1.011       1.011       1.010       1.010       1.010       1.010       1.010    
     1221..    1.010       1.009       1.009       1.009       1.009       1.009       1.009       1.008       1.008       1.008    
     1231..    1.008       1.008       1.008       1.007       1.007       1.007       1.007       1.007       1.007       1.007    
     1241..    1.006       1.006       1.006       1.006       1.006       1.006       1.005       1.005       1.005       1.005    
     1251..    1.005       1.005       1.004       1.004       1.004       1.004       1.004       1.004       1.003       1.003    
     1261..    1.003       1.003       1.003       1.003       1.002       1.002       1.002       1.002       1.002       1.002    
     1271..    1.002       1.001       1.001       1.001       1.001       1.001       1.001       1.000       1.000       1.000    
1
             HEADU IN LAYER      17 AT END OF TIME STEP       1 IN STRESS PERIOD       1 STRESS TIME    1.00000     TOTAL TIME    1.00000    
  -----------------------------------------------------------------------------------------------------------------------------------------
     1281..    1.013       1.013       1.012       1.012       1.012       1.012       1.012       1.012       1.012       1.011    
     1291..    1.011       1.011       1.011       1.011       1.011       1.010       1.010       1.010       1.010       1.010    
     1301..    1.010       1.009       1.009       1.009       1.009       1.009       1.009       1.008       1.008       1.008    
     1311..    1.008       1.008       1.008       1.007       1.007       1.007       1.007       1.007       1.007       1.007    
     1321..    1.006       1.006       1.006       1.006       1.006       1.006       1.005       1.005       1.005       1.005    
     1331..    1.005       1.005       1.004       1.004       1.004       1.004       1.004       1.004       1.003       1.003    
[...]
1
             HEADU IN LAYER      31 AT END OF TIME STEP     500 IN STRESS PERIOD       2 STRESS TIME   0.500000     TOTAL TIME    1.50000    
  -----------------------------------------------------------------------------------------------------------------------------------------
     2401..    1.025       1.025       1.024       1.024       1.024       1.024       1.024       1.024       1.023       1.023    
     2411..    1.023       1.023       1.023       1.023       1.023       1.022       1.022       1.022       1.022       1.022    
     2421..    1.022       1.021       1.021       1.021       1.021       1.021       1.021       1.021       1.020       1.020    
     2431..    1.020       1.020       1.020       1.019       1.019       1.019       1.018       1.018       1.018       1.017    
     2441..    1.017       1.016       1.015       1.015       1.014       1.013       1.013       1.012       1.011       1.010    
     2451..    1.010       1.009       1.008       1.008       1.007       1.006       1.006       1.005       1.004       1.004    
     2461..    1.003       1.003       1.002       1.002       1.002       1.001       1.001       1.001       1.000       1.000    
     2471..    1.000       1.000      0.9999      0.9999      0.9998      0.9998      0.9998      0.9998      0.9999       1.000    
1
             HEADU IN LAYER      32 AT END OF TIME STEP     500 IN STRESS PERIOD       2 STRESS TIME   0.500000     TOTAL TIME    1.50000    
  -----------------------------------------------------------------------------------------------------------------------------------------
     2481..    1.025       1.025       1.024       1.024       1.024       1.024       1.024       1.024       1.024       1.023    
     2491..    1.023       1.023       1.023       1.023       1.023       1.022       1.022       1.022       1.022       1.022    
     2501..    1.022       1.022       1.021       1.021       1.021       1.021       1.021       1.021       1.020       1.020    
     2511..    1.020       1.020       1.020       1.019       1.019       1.019       1.018       1.018       1.017       1.017    
     2521..    1.016       1.015       1.015       1.014       1.013       1.013       1.012       1.011       1.010       1.010    
     2531..    1.009       1.008       1.007       1.007       1.006       1.005       1.005       1.004       1.004       1.003    
     2541..    1.003       1.002       1.002       1.002       1.001       1.001       1.001       1.000       1.000       1.000    
     2551..    1.000      0.9999      0.9998      0.9998      0.9998      0.9998      0.9998      0.9998      0.9999       1.000    
1
             HEADU IN LAYER      33 AT END OF TIME STEP     500 IN STRESS PERIOD       2 STRESS TIME   0.500000     TOTAL TIME    1.50000    
  -----------------------------------------------------------------------------------------------------------------------------------------
     2561..    1.025       1.025       1.024       1.024       1.024       1.024       1.024       1.024       1.024       1.023    
     2571..    1.023       1.023       1.023       1.023       1.023       1.022       1.022       1.022       1.022       1.022    
     2581..    1.022       1.022       1.021       1.021       1.021       1.021       1.021       1.021       1.020       1.020    
     2591..    1.020       1.020       1.020       1.019       1.019       1.019       1.018       1.018       1.017       1.016    
     2601..    1.016       1.015       1.014       1.013       1.013       1.012       1.011       1.010       1.009       1.009    
     2611..    1.008       1.007       1.007       1.006       1.005       1.005       1.004       1.004       1.003       1.003    
     2621..    1.002       1.002       1.001       1.001       1.001       1.001       1.000       1.000       1.000      0.9999    
     2631..   0.9998      0.9998      0.9997      0.9997      0.9997      0.9997      0.9998      0.9998      0.9999      0.9999    
1
             HEADU IN LAYER      34 AT END OF TIME STEP     500 IN STRESS PERIOD       2 STRESS TIME   0.500000     TOTAL TIME    1.50000    
  -----------------------------------------------------------------------------------------------------------------------------------------
     2641..    1.025       1.025       1.024       1.024       1.024       1.024       1.024       1.024       1.024       1.023    
     2651..    1.023       1.023       1.023       1.023       1.023       1.022       1.022       1.022       1.022       1.022    
     2661..    1.022       1.022       1.021       1.021       1.021       1.021       1.021       1.021       1.021       1.020    
     2671..    1.020       1.020       1.020       1.019       1.019       1.018       1.018       1.017       1.017       1.016    
     2681..    1.015       1.014       1.014       1.013       1.012       1.011       1.010       1.009       1.009       1.008    
     2691..    1.007       1.006       1.006       1.005       1.004       1.004       1.003       1.003       1.002       1.002    
     2701..    1.002       1.001       1.001       1.001       1.001       1.000       1.000       1.000      0.9999      0.9998    
     2711..   0.9997      0.9997      0.9997      0.9997      0.9997      0.9997      0.9997      0.9998      0.9999      0.9999    
1
             HEADU IN LAYER      35 AT END OF TIME STEP     500 IN STRESS PERIOD       2 STRESS TIME   0.500000     TOTAL TIME    1.50000    
  -----------------------------------------------------------------------------------------------------------------------------------------
     2721..    1.025       1.025       1.024       1.024       1.024       1.024       1.024       1.024       1.024       1.023    
     2731..    1.023       1.023       1.023       1.023       1.023       1.022       1.022       1.022       1.022       1.022    
     2741..    1.022       1.022       1.021       1.021       1.021       1.021       1.021       1.021       1.021       1.020    
     2751..    1.020       1.020       1.020       1.019       1.019       1.018       1.018       1.017       1.016       1.015    
     2761..    1.015       1.014       1.013       1.012       1.011       1.010       1.009       1.008       1.008       1.007    
     2771..    1.006       1.006       1.005       1.004       1.004       1.003       1.003       1.002       1.002       1.002    
     2781..    1.001       1.001       1.001       1.000       1.000       1.000      0.9999      0.9998      0.9997      0.9997    
     2791..   0.9996      0.9996      0.9996      0.9996      0.9996      0.9997      0.9997      0.9998      0.9999      0.9999    
1
             HEADU IN LAYER      36 AT END OF TIME STEP     500 IN STRESS PERIOD       2 STRESS TIME   0.500000     TOTAL TIME    1.50000    
  -----------------------------------------------------------------------------------------------------------------------------------------
     2801..    1.025       1.025       1.024       1.024       1.024       1.024       1.024       1.024       1.024       1.023    
     2811..    1.023       1.023       1.023       1.023       1.023       1.022       1.022       1.022       1.022       1.022    
     2821..    1.022       1.022       1.021       1.021       1.021       1.021       1.021       1.021       1.021       1.020    
     2831..    1.020       1.020       1.020       1.019       1.019       1.018       1.017       1.017       1.016       1.015    
     2841..    1.014       1.013       1.012       1.011       1.010       1.009       1.008       1.008       1.007       1.006    
     2851..    1.005       1.005       1.004       1.004       1.003       1.003       1.002       1.002       1.001       1.001    
     2861..    1.001       1.001       1.000       1.000       1.000      0.9998      0.9997      0.9997      0.9996      0.9996    
     2871..   0.9995      0.9995      0.9995      0.9996      0.9996      0.9997      0.9997      0.9998      0.9999      0.9999    
1
             HEADU IN LAYER      37 AT END OF TIME STEP     500 IN STRESS PERIOD       2 STRESS TIME   0.500000     TOTAL TIME    1.50000    
  -----------------------------------------------------------------------------------------------------------------------------------------
     2881..    1.025       1.025       1.024       1.024       1.024       1.024       1.024       1.024       1.024       1.023    
     2891..    1.023       1.023       1.023       1.023       1.023       1.022       1.022       1.022       1.022       1.022    
     2901..    1.022       1.022       1.021       1.021       1.021       1.021       1.021       1.021       1.021       1.020    
     2911..    1.020       1.020       1.019       1.019       1.018       1.018       1.017       1.016       1.015       1.014    
     2921..    1.013       1.012       1.011       1.010       1.009       1.008       1.008       1.007       1.006       1.005    
     2931..    1.005       1.004       1.004       1.003       1.003       1.002       1.002       1.001       1.001       1.001    
     2941..    1.000       1.000       1.000      0.9999      0.9998      0.9997      0.9996      0.9995      0.9995      0.9995    
     2951..   0.9995      0.9995      0.9995      0.9995      0.9996      0.9996      0.9997      0.9998      0.9999      0.9999    
1
             HEADU IN LAYER      38 AT END OF TIME STEP     500 IN STRESS PERIOD       2 STRESS TIME   0.500000     TOTAL TIME    1.50000    
  -----------------------------------------------------------------------------------------------------------------------------------------
     2961..    1.025       1.025       1.024       1.024       1.024       1.024       1.024       1.024       1.024       1.023    
     2971..    1.023       1.023       1.023       1.023       1.023       1.022       1.022       1.022       1.022       1.022    
     2981..    1.022       1.022       1.021       1.021       1.021       1.021       1.021       1.021       1.021       1.020    
     2991..    1.020       1.020       1.019       1.019       1.018       1.018       1.017       1.016       1.015       1.014    
     3001..    1.013       1.012       1.011       1.010       1.009       1.008       1.007       1.006       1.005       1.005    
     3011..    1.004       1.004       1.003       1.003       1.002       1.002       1.001       1.001       1.001       1.000    
     3021..    1.000       1.000      0.9999      0.9998      0.9996      0.9996      0.9995      0.9994      0.9994      0.9994    
     3031..   0.9994      0.9994      0.9995      0.9995      0.9996      0.9996      0.9997      0.9998      0.9999      0.9999    
1
             HEADU IN LAYER      39 AT END OF TIME STEP     500 IN STRESS PERIOD       2 STRESS TIME   0.500000     TOTAL TIME    1.50000    
  -----------------------------------------------------------------------------------------------------------------------------------------
     3041..    1.025       1.025       1.024       1.024       1.024       1.024       1.024       1.024       1.024       1.023    
     3051..    1.023       1.023       1.023       1.023       1.023       1.022       1.022       1.022       1.022       1.022    
     3061..    1.022       1.022       1.021       1.021       1.021       1.021       1.021       1.021       1.021       1.020    
     3071..    1.020       1.020       1.019       1.019       1.018       1.017       1.016       1.015       1.014       1.013    
     3081..    1.012       1.011       1.010       1.009       1.008       1.007       1.006       1.006       1.005       1.004    
     3091..    1.004       1.003       1.003       1.002       1.002       1.001       1.001       1.001       1.001       1.000    
     3101..    1.000      0.9999      0.9998      0.9996      0.9995      0.9995      0.9994      0.9994      0.9994      0.9994    
     3111..   0.9994      0.9994      0.9994      0.9995      0.9996      0.9996      0.9997      0.9998      0.9999      0.9999    
1
             HEADU IN LAYER      40 AT END OF TIME STEP     500 IN STRESS PERIOD       2 STRESS TIME   0.500000     TOTAL TIME    1.50000    
  -----------------------------------------------------------------------------------------------------------------------------------------
     3121..    1.025       1.025       1.024       1.024       1.024       1.024       1.024       1.024       1.024       1.023    
     3131..    1.023       1.023       1.023       1.023       1.023       1.022       1.022       1.022       1.022       1.022    
     3141..    1.022       1.022       1.021       1.021       1.021       1.021       1.021       1.021       1.021       1.020    
     3151..    1.020       1.020       1.019       1.019       1.018       1.017       1.016       1.015       1.014       1.013    
     3161..    1.012       1.011       1.010       1.009       1.008       1.007       1.006       1.005       1.005       1.004    
     3171..    1.003       1.003       1.002       1.002       1.002       1.001       1.001       1.001       1.000       1.000    
     3181..    1.000      0.9998      0.9997      0.9996      0.9995      0.9994      0.9994      0.9994      0.9993      0.9993    
     3191..   0.9994      0.9994      0.9994      0.9995      0.9995      0.9996      0.9997      0.9998      0.9999      0.9999    

 HEAD WILL BE SAVED ON UNIT       51 AT END OF TIME STEP      500, STRESS PERIOD        2
1
  VOLUMETRIC BUDGET FOR ENTIRE MODEL AT END OF TIME STEP     500 IN STRESS PERIOD       2
  ---------------------------------------------------------------------------------------

     CUMULATIVE VOLUMES      L**3       RATES FOR THIS TIME STEP      L**3/T
     ------------------                 ------------------------

           IN:                                      IN:
           ---                                      ---
             STORAGE =       3.6043E-35               STORAGE =       9.9787E-35
     DENSITY STORAGE =       1.4222E-02       DENSITY STORAGE =       1.6017E-03
       CONSTANT HEAD =           0.0000         CONSTANT HEAD =           0.0000
               WELLS =           8.5530                 WELLS =           5.7020
     HEAD DEP BOUNDS =           0.7895       HEAD DEP BOUNDS =           1.9243

            TOTAL IN =           9.3567              TOTAL IN =           7.6279

          OUT:                                     OUT:
          ----                                     ----
             STORAGE =       2.0020E-34               STORAGE =       2.6678E-36
     DENSITY STORAGE =       3.7361E-04       DENSITY STORAGE =       2.8295E-04
       CONSTANT HEAD =           0.0000         CONSTANT HEAD =           0.0000
               WELLS =           0.0000                 WELLS =           0.0000
     HEAD DEP BOUNDS =           9.3564       HEAD DEP BOUNDS =           7.6276

           TOTAL OUT =           9.3567             TOTAL OUT =           7.6279

            IN - OUT =      -2.5935E-05              IN - OUT =       4.3829E-06

 PERCENT DISCREPANCY =          -0.00     PERCENT DISCREPANCY =           0.00






          TIME SUMMARY AT END OF TIME STEP       500 IN STRESS PERIOD         2
                    SECONDS     MINUTES      HOURS       DAYS        YEARS
                    -----------------------------------------------------------
   TIME STEP LENGTH  86.400      1.4400     2.40000E-02 1.00000E-03 2.73785E-06
 STRESS PERIOD TIME  43200.      720.00      12.000     0.50000     1.36893E-03
         TOTAL TIME 1.29600E+05  2160.0      36.000      1.5000     4.10678E-03
1



          TIME SUMMARY AT END OF TIME STEP       500 IN STRESS PERIOD         2
                    SECONDS     MINUTES      HOURS       DAYS        YEARS
                    -----------------------------------------------------------
   TIME STEP LENGTH  86.400      1.4400     2.40000E-02 1.00000E-03 2.73785E-06
 STRESS PERIOD TIME  43200.      720.00      12.000     0.50000     1.36893E-03
         TOTAL TIME 1.29600E+05  2160.0      36.000      1.5000     4.10678E-03
1
 ------------------------------------------------------------------------------------------------------------
 
 SOLVING FOR TRANSPORT 

          SEQUENTIAL TRANSPORT ITERATION LOOP NUMBER    1
          -----------------------------------------------

 ------------------------------------------------------------------------------------------------------------------------
     1 CALLS TO SPARSE MATRIX SOLVER PACKAGE IN TRANSPORT TIME STEP     500 STRESS PERIOD       2 SPECIES  1

 TOTAL OF       1OUTER ITERATIONS
  MAXIMUM CHANGE FOR EACH ITERATION:
   MAX. CHANGE        NODE  MAX. CHANGE        NODE  MAX. CHANGE        NODE  MAX. CHANGE        NODE  MAX. CHANGE        NODE
 ------------------------------------------------------------------------------------------------------------------------------------
  -0.26875    ,       1440
     TRANSPORT SOLUTION COMPLETE FOR COMPONENT SPECIES NUMBER    1
     ------------------------------------------------------------

 TRANSPORT SOLUTION COMPLETE FOR ALL SPECIES, SORTING OUTPUT FOR CONCENTRATIONS AND MASS BALANCE
 ----------------------------------------------------------------------------------------------------
     TRANSPORT OUTPUT FOR COMPONENT SPECIES NUMBER    1
     ------------------------------------------------------------

 CONC WILL BE SAVED ON UNIT   52 AT END OF TIME STEP      500, STRESS PERIOD        2
1
  VOLUMETRIC BUDGET FOR ENTIRE MODEL AT END OF TIME STEP     500 IN STRESS PERIOD       2
  ---------------------------------------------------------------------------------------

     CUMULATIVE VOLUMES      L**3       RATES FOR THIS TIME STEP      L**3/T
     ------------------                 ------------------------

           IN:                                      IN:
           ---                                      ---
        MASS STORAGE =          20.1751          MASS STORAGE =           2.5160
      WELL MASS FLUX =         199.5700        WELL MASS FLUX =           0.0000
       GHB MASS FLUX =          27.6323         GHB MASS FLUX =          67.3491

            TOTAL IN =         247.3774              TOTAL IN =          69.8651

          OUT:                                     OUT:
          ----                                     ----
        MASS STORAGE =           0.5327          MASS STORAGE =           0.1816
      WELL MASS FLUX =           0.0000        WELL MASS FLUX =           0.0000
       GHB MASS FLUX =         246.8447         GHB MASS FLUX =          69.6835

           TOTAL OUT =         247.3774             TOTAL OUT =          69.8651

            IN - OUT =      -1.6626E-07              IN - OUT =       3.5763E-07

 PERCENT DISCREPANCY =          -0.00     PERCENT DISCREPANCY =           0.00



          TOTAL MASS COMPUTATION FOR COMPONENT NUMBER     1

     MASS OF COMPONENTS AT THE END OF STRESS PERIOD         2 AND TIME STEP       500
     ---------------------------------------------------------------------------------------

     IN MOBILE DOMAIN

     ------------------
     COMPONENT INDEX     MASS
     ---------------     ----
              1        0.485761E+01



          TIME SUMMARY AT END OF TIME STEP       500 IN STRESS PERIOD         2
                    SECONDS     MINUTES      HOURS       DAYS        YEARS
                    -----------------------------------------------------------
   TIME STEP LENGTH  86.400      1.4400     2.40000E-02 1.00000E-03 2.73785E-06
 STRESS PERIOD TIME  43200.      720.00      12.000     0.50000     1.36893E-03
         TOTAL TIME 1.29600E+05  2160.0      36.000      1.5000     4.10678E-03
1

 Run end date and time (yyyy/mm/dd hh:mm:ss): 2024/05/13 16:30:12
 Elapsed run time:  1.670 Seconds

